data/p13uhs0_1247/DSSfiles/p13uhs0_1247--p13udt13219/PVSystems.dss
New PVSystem.pv_load_p13ulv37512 bus1=p13ulv37512.1.2 phases=1 kV=0.24 kVA=4.545454545454545 Pmpp=5.0 %Cutout=0.1 %Cutin=0.1 Model=1 irradiance=1 yearly=SFO_37.8764_-122.3414_35_135
New PVSystem.pv_load_p13ulv38407 bus1=p13ulv38407.1.2 phases=1 kV=0.24 kVA=7.2727272727272725 Pmpp=8.0 %Cutout=0.1 %Cutin=0.1 Model=1 irradiance=1 yearly=SFO_37.8764_-122.3414_25_135
New PVSystem.pv_load_p13ulv42682 bus1=p13ulv42682.1.2 phases=1 kV=0.24 kVA=4.545454545454545 Pmpp=5.0 %Cutout=0.1 %Cutin=0.1 Model=1 irradiance=1 yearly=SFO_37.8764_-122.3414_15_180
New PVSystem.pv_load_p13ulv38170 bus1=p13ulv38146.1.2 phases=1 kV=0.24 kVA=4.545454545454545 Pmpp=5.0 %Cutout=0.1 %Cutin=0.1 Model=1 irradiance=1 yearly=SFO_37.8764_-122.3414_15_135
New PVSystem.pv_load_p13ulv42617 bus1=p13ulv42617.1.2 phases=1 kV=0.24 kVA=4.545454545454545 Pmpp=5.0 %Cutout=0.1 %Cutin=0.1 Model=1 irradiance=1 yearly=SFO_37.8764_-122.3414_15_135
New PVSystem.pv_load_p13ulv45742 bus1=p13ulv45742.1.2 phases=1 kV=0.24 kVA=4.545454545454545 Pmpp=5.0 %Cutout=0.1 %Cutin=0.1 Model=1 irradiance=1 yearly=SFO_37.8764_-122.3414_25_270
New PVSystem.pv_load_p13ulv38085 bus1=p13ulv38085.1.2 phases=1 kV=0.24 kVA=4.545454545454545 Pmpp=5.0 %Cutout=0.1 %Cutin=0.1 Model=1 irradiance=1 yearly=SFO_37.8764_-122.3414_25_225
New PVSystem.pv_load_p13ulv3744 bus1=p13ulv3744.1.2 phases=1 kV=0.24 kVA=4.545454545454545 Pmpp=5.0 %Cutout=0.1 %Cutin=0.1 Model=1 irradiance=1 yearly=SFO_37.8764_-122.3414_25_225
New PVSystem.pv_load_p13ulv46346 bus1=p13ulv46346.1.2 phases=1 kV=0.24 kVA=4.545454545454545 Pmpp=5.0 %Cutout=0.1 %Cutin=0.1 Model=1 irradiance=1 yearly=SFO_37.8764_-122.3414_15_225
New PVSystem.pv_load_p13ulv39070 bus1=p13ulv39070.1.2 phases=1 kV=0.24 kVA=4.545454545454545 Pmpp=5.0 %Cutout=0.1 %Cutin=0.1 Model=1 irradiance=1 yearly=SFO_37.8764_-122.3414_35_270
New PVSystem.pv_load_p13ulv39027 bus1=p13ulv39027.1.2 phases=1 kV=0.24 kVA=4.545454545454545 Pmpp=5.0 %Cutout=0.1 %Cutin=0.1 Model=1 irradiance=1 yearly=SFO_37.8764_-122.3414_15_270
New PVSystem.pv_load_p13ulv38133 bus1=p13ulv38133.1.2 phases=1 kV=0.24 kVA=4.545454545454545 Pmpp=5.0 %Cutout=0.1 %Cutin=0.1 Model=1 irradiance=1 yearly=SFO_37.8764_-122.3414_35_180
New PVSystem.pv_load_p13ulv42827 bus1=p13ulv42827.1.2 phases=1 kV=0.24 kVA=4.545454545454545 Pmpp=5.0 %Cutout=0.1 %Cutin=0.1 Model=1 irradiance=1 yearly=SFO_37.8764_-122.3414_35_135
New PVSystem.pv_load_p13ulv33216 bus1=p13ulv33216.1.2 phases=1 kV=0.24 kVA=4.545454545454545 Pmpp=5.0 %Cutout=0.1 %Cutin=0.1 Model=1 irradiance=1 yearly=SFO_37.8764_-122.3414_15_135
New PVSystem.pv_load_p13ulv119736 bus1=p13ulv119736.1.2 phases=1 kV=0.24 kVA=4.545454545454545 Pmpp=5.0 %Cutout=0.1 %Cutin=0.1 Model=1 irradiance=1 yearly=SFO_37.8764_-122.3414_25_225
New PVSystem.pv_load_p13ulv44112 bus1=p13ulv44112.1.2 phases=1 kV=0.24 kVA=4.545454545454545 Pmpp=5.0 %Cutout=0.1 %Cutin=0.1 Model=1 irradiance=1 yearly=SFO_37.8764_-122.3414_15_180
New PVSystem.pv_load_p13ulv38525 bus1=p13ulv38525.1.2 phases=1 kV=0.24 kVA=4.545454545454545 Pmpp=5.0 %Cutout=0.1 %Cutin=0.1 Model=1 irradiance=1 yearly=SFO_37.8764_-122.3414_25_90
New PVSystem.pv_load_p13ulv37997 bus1=p13ulv37997.1.2 phases=1 kV=0.24 kVA=4.545454545454545 Pmpp=5.0 %Cutout=0.1 %Cutin=0.1 Model=1 irradiance=1 yearly=SFO_37.8764_-122.3414_25_225
New PVSystem.pv_load_p13ulv39127 bus1=p13ulv39127.1.2 phases=1 kV=0.24 kVA=2.727272727272727 Pmpp=3.0 %Cutout=0.1 %Cutin=0.1 Model=1 irradiance=1 yearly=SFO_37.8764_-122.3414_35_180
New PVSystem.pv_load_p13ulv37425 bus1=p13ulv37425.1.2 phases=1 kV=0.24 kVA=4.545454545454545 Pmpp=5.0 %Cutout=0.1 %Cutin=0.1 Model=1 irradiance=1 yearly=SFO_37.8764_-122.3414_15_225
New PVSystem.pv_load_p13ulv41345 bus1=p13ulv41345.1.2 phases=1 kV=0.24 kVA=4.545454545454545 Pmpp=5.0 %Cutout=0.1 %Cutin=0.1 Model=1 irradiance=1 yearly=SFO_37.8764_-122.3414_25_225
New PVSystem.pv_load_p13ulv36965 bus1=p13ulv36965.1.2 phases=1 kV=0.24 kVA=4.545454545454545 Pmpp=5.0 %Cutout=0.1 %Cutin=0.1 Model=1 irradiance=1 yearly=SFO_37.8764_-122.3414_15_225
New PVSystem.pv_load_p13ulv38431 bus1=p13ulv38431.1.2 phases=1 kV=0.24 kVA=4.545454545454545 Pmpp=5.0 %Cutout=0.1 %Cutin=0.1 Model=1 irradiance=1 yearly=SFO_37.8764_-122.3414_25_180
New PVSystem.pv_load_p13ulv40193 bus1=p13ulv40193.1.2 phases=1 kV=0.24 kVA=2.727272727272727 Pmpp=3.0 %Cutout=0.1 %Cutin=0.1 Model=1 irradiance=1 yearly=SFO_37.8764_-122.3414_15_225
New PVSystem.pv_load_p13ulv37386 bus1=p13ulv37386.1.2 phases=1 kV=0.24 kVA=4.545454545454545 Pmpp=5.0 %Cutout=0.1 %Cutin=0.1 Model=1 irradiance=1 yearly=SFO_37.8764_-122.3414_35_135
New PVSystem.pv_load_p13ulv45600 bus1=p13ulv45600.1.2 phases=1 kV=0.24 kVA=4.545454545454545 Pmpp=5.0 %Cutout=0.1 %Cutin=0.1 Model=1 irradiance=1 yearly=SFO_37.8764_-122.3414_35_225
New PVSystem.pv_load_p13ulv32584 bus1=p13ulv32584.1.2 phases=1 kV=0.24 kVA=4.545454545454545 Pmpp=5.0 %Cutout=0.1 %Cutin=0.1 Model=1 irradiance=1 yearly=SFO_37.8764_-122.3414_25_90
New PVSystem.pv_load_p13ulv1695 bus1=p13ulv1695.1.2 phases=1 kV=0.24 kVA=4.545454545454545 Pmpp=5.0 %Cutout=0.1 %Cutin=0.1 Model=1 irradiance=1 yearly=SFO_37.8764_-122.3414_15_90
New PVSystem.pv_load_p13ulv45701 bus1=p13ulv45700.1.2 phases=1 kV=0.24 kVA=4.545454545454545 Pmpp=5.0 %Cutout=0.1 %Cutin=0.1 Model=1 irradiance=1 yearly=SFO_37.8764_-122.3414_25_90
New PVSystem.pv_load_p13ulv38031 bus1=p13ulv38031.1.2 phases=1 kV=0.24 kVA=4.545454545454545 Pmpp=5.0 %Cutout=0.1 %Cutin=0.1 Model=1 irradiance=1 yearly=SFO_37.8764_-122.3414_25_270
New PVSystem.pv_load_p13ulv38790 bus1=p13ulv38790.1.2 phases=1 kV=0.24 kVA=4.545454545454545 Pmpp=5.0 %Cutout=0.1 %Cutin=0.1 Model=1 irradiance=1 yearly=SFO_37.8764_-122.3414_15_180
New PVSystem.pv_load_p13ulv42560 bus1=p13ulv42560.1.2 phases=1 kV=0.24 kVA=4.545454545454545 Pmpp=5.0 %Cutout=0.1 %Cutin=0.1 Model=1 irradiance=1 yearly=SFO_37.8764_-122.3414_15_90
New PVSystem.pv_load_p13ulv44191 bus1=p13ulv44191.1.2 phases=1 kV=0.24 kVA=4.545454545454545 Pmpp=5.0 %Cutout=0.1 %Cutin=0.1 Model=1 irradiance=1 yearly=SFO_37.8764_-122.3414_35_180
New PVSystem.pv_load_p13ulv42567 bus1=p13ulv42567.1.2 phases=1 kV=0.24 kVA=4.545454545454545 Pmpp=5.0 %Cutout=0.1 %Cutin=0.1 Model=1 irradiance=1 yearly=SFO_37.8764_-122.3414_15_90
New PVSystem.pv_load_p13ulv44774 bus1=p13ulv44774.1.2 phases=1 kV=0.24 kVA=4.545454545454545 Pmpp=5.0 %Cutout=0.1 %Cutin=0.1 Model=1 irradiance=1 yearly=SFO_37.8764_-122.3414_25_135
New PVSystem.pv_load_p13ulv44730 bus1=p13ulv44730.1.2 phases=1 kV=0.24 kVA=4.545454545454545 Pmpp=5.0 %Cutout=0.1 %Cutin=0.1 Model=1 irradiance=1 yearly=SFO_37.8764_-122.3414_15_180
New PVSystem.pv_load_p13ulv33386 bus1=p13ulv33386.1.2 phases=1 kV=0.24 kVA=4.545454545454545 Pmpp=5.0 %Cutout=0.1 %Cutin=0.1 Model=1 irradiance=1 yearly=SFO_37.8764_-122.3414_25_135
New PVSystem.pv_load_p13ulv38091 bus1=p13ulv38091.1.2 phases=1 kV=0.24 kVA=4.545454545454545 Pmpp=5.0 %Cutout=0.1 %Cutin=0.1 Model=1 irradiance=1 yearly=SFO_37.8764_-122.3414_15_270
New PVSystem.pv_load_p13ulv40373 bus1=p13ulv40373.1.2 phases=1 kV=0.24 kVA=4.545454545454545 Pmpp=5.0 %Cutout=0.1 %Cutin=0.1 Model=1 irradiance=1 yearly=SFO_37.8764_-122.3414_45_90
New PVSystem.pv_load_p13ulv43402 bus1=p13ulv43402.1.2 phases=1 kV=0.24 kVA=4.545454545454545 Pmpp=5.0 %Cutout=0.1 %Cutin=0.1 Model=1 irradiance=1 yearly=SFO_37.8764_-122.3414_15_135
New PVSystem.pv_load_p13ulv38113 bus1=p13ulv38113.1.2 phases=1 kV=0.24 kVA=4.545454545454545 Pmpp=5.0 %Cutout=0.1 %Cutin=0.1 Model=1 irradiance=1 yearly=SFO_37.8764_-122.3414_25_180
New PVSystem.pv_load_p13ulv37397 bus1=p13ulv37397.1.2 phases=1 kV=0.24 kVA=4.545454545454545 Pmpp=5.0 %Cutout=0.1 %Cutin=0.1 Model=1 irradiance=1 yearly=SFO_37.8764_-122.3414_25_270
New PVSystem.pv_load_p13ulv45673 bus1=p13ulv45673.1.2 phases=1 kV=0.24 kVA=4.545454545454545 Pmpp=5.0 %Cutout=0.1 %Cutin=0.1 Model=1 irradiance=1 yearly=SFO_37.8764_-122.3414_45_225
New PVSystem.pv_load_p13ulv37898 bus1=p13ulv37896.1.2 phases=1 kV=0.24 kVA=4.545454545454545 Pmpp=5.0 %Cutout=0.1 %Cutin=0.1 Model=1 irradiance=1 yearly=SFO_37.8764_-122.3414_25_225
New PVSystem.pv_load_p13ulv38505 bus1=p13ulv38505.1.2 phases=1 kV=0.24 kVA=4.545454545454545 Pmpp=5.0 %Cutout=0.1 %Cutin=0.1 Model=1 irradiance=1 yearly=SFO_37.8764_-122.3414_15_225
New PVSystem.pv_load_p13ulv119729 bus1=p13ulv119729.1.2 phases=1 kV=0.24 kVA=4.545454545454545 Pmpp=5.0 %Cutout=0.1 %Cutin=0.1 Model=1 irradiance=1 yearly=SFO_37.8764_-122.3414_35_180
New PVSystem.pv_load_p13ulv36781 bus1=p13ulv36781.1.2 phases=1 kV=0.24 kVA=4.545454545454545 Pmpp=5.0 %Cutout=0.1 %Cutin=0.1 Model=1 irradiance=1 yearly=SFO_37.8764_-122.3414_15_270
New PVSystem.pv_load_p13ulv39097 bus1=p13ulv39097.1.2 phases=1 kV=0.24 kVA=7.2727272727272725 Pmpp=8.0 %Cutout=0.1 %Cutin=0.1 Model=1 irradiance=1 yearly=SFO_37.8764_-122.3414_15_180
New PVSystem.pv_load_p13ulv42676 bus1=p13ulv42676.1.2 phases=1 kV=0.24 kVA=4.545454545454545 Pmpp=5.0 %Cutout=0.1 %Cutin=0.1 Model=1 irradiance=1 yearly=SFO_37.8764_-122.3414_35_270
New PVSystem.pv_load_p13ulv3763 bus1=p13ulv3763.1.2 phases=1 kV=0.24 kVA=4.545454545454545 Pmpp=5.0 %Cutout=0.1 %Cutin=0.1 Model=1 irradiance=1 yearly=SFO_37.8764_-122.3414_25_135
New PVSystem.pv_load_p13ulv39135 bus1=p13ulv39135.1.2 phases=1 kV=0.24 kVA=4.545454545454545 Pmpp=5.0 %Cutout=0.1 %Cutin=0.1 Model=1 irradiance=1 yearly=SFO_37.8764_-122.3414_25_90
New PVSystem.pv_load_p13ulv42707 bus1=p13ulv42707.1.2 phases=1 kV=0.24 kVA=4.545454545454545 Pmpp=5.0 %Cutout=0.1 %Cutin=0.1 Model=1 irradiance=1 yearly=SFO_37.8764_-122.3414_25_180
New PVSystem.pv_load_p13ulv38789 bus1=p13ulv38789.1.2 phases=1 kV=0.24 kVA=4.545454545454545 Pmpp=5.0 %Cutout=0.1 %Cutin=0.1 Model=1 irradiance=1 yearly=SFO_37.8764_-122.3414_35_225
New PVSystem.pv_load_p13ulv40240 bus1=p13ulv40240.1.2 phases=1 kV=0.24 kVA=4.545454545454545 Pmpp=5.0 %Cutout=0.1 %Cutin=0.1 Model=1 irradiance=1 yearly=SFO_37.8764_-122.3414_15_225
New PVSystem.pv_load_p13ulv36783 bus1=p13ulv36783.1.2 phases=1 kV=0.24 kVA=4.545454545454545 Pmpp=5.0 %Cutout=0.1 %Cutin=0.1 Model=1 irradiance=1 yearly=SFO_37.8764_-122.3414_15_180
New PVSystem.pv_load_p13ulv45687 bus1=p13ulv45687.1.2 phases=1 kV=0.24 kVA=4.545454545454545 Pmpp=5.0 %Cutout=0.1 %Cutin=0.1 Model=1 irradiance=1 yearly=SFO_37.8764_-122.3414_35_135
New PVSystem.pv_load_p13ulv46175 bus1=p13ulv46175.1.2 phases=1 kV=0.24 kVA=4.545454545454545 Pmpp=5.0 %Cutout=0.1 %Cutin=0.1 Model=1 irradiance=1 yearly=SFO_37.8764_-122.3414_45_270
New PVSystem.pv_load_p13ulv38739 bus1=p13ulv38739.1.2 phases=1 kV=0.24 kVA=4.545454545454545 Pmpp=5.0 %Cutout=0.1 %Cutin=0.1 Model=1 irradiance=1 yearly=SFO_37.8764_-122.3414_25_180
New PVSystem.pv_load_p13ulv40226 bus1=p13ulv40226.1.2 phases=1 kV=0.24 kVA=4.545454545454545 Pmpp=5.0 %Cutout=0.1 %Cutin=0.1 Model=1 irradiance=1 yearly=SFO_37.8764_-122.3414_15_180
New PVSystem.pv_load_p13ulv1396 bus1=p13ulv1396.1.2 phases=1 kV=0.24 kVA=4.545454545454545 Pmpp=5.0 %Cutout=0.1 %Cutin=0.1 Model=1 irradiance=1 yearly=SFO_37.8764_-122.3414_25_225
New PVSystem.pv_load_p13ulv38028 bus1=p13ulv38028.1.2 phases=1 kV=0.24 kVA=4.545454545454545 Pmpp=5.0 %Cutout=0.1 %Cutin=0.1 Model=1 irradiance=1 yearly=SFO_37.8764_-122.3414_25_180
New PVSystem.pv_load_p13ulv4172 bus1=p13ulv4172.1.2 phases=1 kV=0.24 kVA=4.545454545454545 Pmpp=5.0 %Cutout=0.1 %Cutin=0.1 Model=1 irradiance=1 yearly=SFO_37.8764_-122.3414_35_135
New PVSystem.pv_load_p13ulv4189 bus1=p13ulv4189.1.2 phases=1 kV=0.24 kVA=90.90909090909089 Pmpp=100.0 %Cutout=0.1 %Cutin=0.1 Model=1 irradiance=1 yearly=SFO_37.8764_-122.3414_25_135
New PVSystem.pv_load_p13ulv38186 bus1=p13ulv38186.1.2 phases=1 kV=0.24 kVA=4.545454545454545 Pmpp=5.0 %Cutout=0.1 %Cutin=0.1 Model=1 irradiance=1 yearly=SFO_37.8764_-122.3414_25_135
New PVSystem.pv_load_p13ulv46143 bus1=p13ulv46143.1.2 phases=1 kV=0.24 kVA=4.545454545454545 Pmpp=5.0 %Cutout=0.1 %Cutin=0.1 Model=1 irradiance=1 yearly=SFO_37.8764_-122.3414_15_180
New PVSystem.pv_load_p13ulv38065 bus1=p13ulv38065.1.2 phases=1 kV=0.24 kVA=4.545454545454545 Pmpp=5.0 %Cutout=0.1 %Cutin=0.1 Model=1 irradiance=1 yearly=SFO_37.8764_-122.3414_35_225
New PVSystem.pv_load_p13ulv36858 bus1=p13ulv36858.1.2 phases=1 kV=0.24 kVA=4.545454545454545 Pmpp=5.0 %Cutout=0.1 %Cutin=0.1 Model=1 irradiance=1 yearly=SFO_37.8764_-122.3414_25_90
New PVSystem.pv_load_p13ulv46310 bus1=p13ulv46310.1.2 phases=1 kV=0.24 kVA=2.727272727272727 Pmpp=3.0 %Cutout=0.1 %Cutin=0.1 Model=1 irradiance=1 yearly=SFO_37.8764_-122.3414_25_90
New PVSystem.pv_load_p13ulv43379 bus1=p13ulv43379.1.2.3 phases=3 kV=0.48 kVA=7.2727272727272725 Pmpp=8.0 %Cutout=0.1 %Cutin=0.1 Model=1 irradiance=1 yearly=SFO_37.8764_-122.3414_25_135
New PVSystem.pv_load_p13ulv39102 bus1=p13ulv39102.1.2 phases=1 kV=0.24 kVA=4.545454545454545 Pmpp=5.0 %Cutout=0.1 %Cutin=0.1 Model=1 irradiance=1 yearly=SFO_37.8764_-122.3414_15_180
New PVSystem.pv_load_p13ulv2700 bus1=p13ulv2700.1.2.3 phases=3 kV=0.48 kVA=90.90909090909089 Pmpp=100.0 %Cutout=0.1 %Cutin=0.1 Model=1 irradiance=1 yearly=SFO_37.8764_-122.3414_15_180
New PVSystem.pv_load_p13ulv46146 bus1=p13ulv46146.1.2 phases=1 kV=0.24 kVA=4.545454545454545 Pmpp=5.0 %Cutout=0.1 %Cutin=0.1 Model=1 irradiance=1 yearly=SFO_37.8764_-122.3414_35_270
New PVSystem.pv_load_p13ulv38130 bus1=p13ulv38130.1.2 phases=1 kV=0.24 kVA=4.545454545454545 Pmpp=5.0 %Cutout=0.1 %Cutin=0.1 Model=1 irradiance=1 yearly=SFO_37.8764_-122.3414_35_270
New PVSystem.pv_load_p13ulv37018 bus1=p13ulv37018.1.2 phases=1 kV=0.24 kVA=4.545454545454545 Pmpp=5.0 %Cutout=0.1 %Cutin=0.1 Model=1 irradiance=1 yearly=SFO_37.8764_-122.3414_15_225
New PVSystem.pv_load_p13ulv40296 bus1=p13ulv40296.1.2 phases=1 kV=0.24 kVA=4.545454545454545 Pmpp=5.0 %Cutout=0.1 %Cutin=0.1 Model=1 irradiance=1 yearly=SFO_37.8764_-122.3414_25_90
New PVSystem.pv_load_p13ulv37312 bus1=p13ulv37312.1.2 phases=1 kV=0.24 kVA=4.545454545454545 Pmpp=5.0 %Cutout=0.1 %Cutin=0.1 Model=1 irradiance=1 yearly=SFO_37.8764_-122.3414_15_180
New PVSystem.pv_load_p13ulv44163 bus1=p13ulv44163.1.2 phases=1 kV=0.24 kVA=4.545454545454545 Pmpp=5.0 %Cutout=0.1 %Cutin=0.1 Model=1 irradiance=1 yearly=SFO_37.8764_-122.3414_15_180
New PVSystem.pv_load_p13ulv37951 bus1=p13ulv37951.1.2 phases=1 kV=0.24 kVA=4.545454545454545 Pmpp=5.0 %Cutout=0.1 %Cutin=0.1 Model=1 irradiance=1 yearly=SFO_37.8764_-122.3414_15_180
New PVSystem.pv_load_p13ulv41424 bus1=p13ulv41424.1.2 phases=1 kV=0.24 kVA=4.545454545454545 Pmpp=5.0 %Cutout=0.1 %Cutin=0.1 Model=1 irradiance=1 yearly=SFO_37.8764_-122.3414_25_180
New PVSystem.pv_load_p13ulv45834 bus1=p13ulv45834.1.2 phases=1 kV=0.24 kVA=4.545454545454545 Pmpp=5.0 %Cutout=0.1 %Cutin=0.1 Model=1 irradiance=1 yearly=SFO_37.8764_-122.3414_25_270
New PVSystem.pv_load_p13ulv45856 bus1=p13ulv45856.1.2 phases=1 kV=0.24 kVA=4.545454545454545 Pmpp=5.0 %Cutout=0.1 %Cutin=0.1 Model=1 irradiance=1 yearly=SFO_37.8764_-122.3414_15_225
New PVSystem.pv_load_p13ulv40188 bus1=p13ulv40188.1.2 phases=1 kV=0.24 kVA=4.545454545454545 Pmpp=5.0 %Cutout=0.1 %Cutin=0.1 Model=1 irradiance=1 yearly=SFO_37.8764_-122.3414_15_225
New PVSystem.pv_load_p13ulv41409 bus1=p13ulv41409.1.2 phases=1 kV=0.24 kVA=4.545454545454545 Pmpp=5.0 %Cutout=0.1 %Cutin=0.1 Model=1 irradiance=1 yearly=SFO_37.8764_-122.3414_25_270
New PVSystem.pv_load_p13ulv36818 bus1=p13ulv36818.1.2 phases=1 kV=0.24 kVA=4.545454545454545 Pmpp=5.0 %Cutout=0.1 %Cutin=0.1 Model=1 irradiance=1 yearly=SFO_37.8764_-122.3414_15_180
New PVSystem.pv_load_p13ulv45764 bus1=p13ulv45764.1.2 phases=1 kV=0.24 kVA=4.545454545454545 Pmpp=5.0 %Cutout=0.1 %Cutin=0.1 Model=1 irradiance=1 yearly=SFO_37.8764_-122.3414_15_135
New PVSystem.pv_load_p13ulv4168 bus1=p13ulv4168.1.2 phases=1 kV=0.24 kVA=4.545454545454545 Pmpp=5.0 %Cutout=0.1 %Cutin=0.1 Model=1 irradiance=1 yearly=SFO_37.8764_-122.3414_25_225
New PVSystem.pv_load_p13ulv38736 bus1=p13ulv38736.1.2 phases=1 kV=0.24 kVA=4.545454545454545 Pmpp=5.0 %Cutout=0.1 %Cutin=0.1 Model=1 irradiance=1 yearly=SFO_37.8764_-122.3414_25_90
New PVSystem.pv_load_p13ulv42631 bus1=p13ulv42631.1.2 phases=1 kV=0.24 kVA=4.545454545454545 Pmpp=5.0 %Cutout=0.1 %Cutin=0.1 Model=1 irradiance=1 yearly=SFO_37.8764_-122.3414_15_270
New PVSystem.pv_load_p13ulv37948 bus1=p13ulv37948.1.2 phases=1 kV=0.24 kVA=4.545454545454545 Pmpp=5.0 %Cutout=0.1 %Cutin=0.1 Model=1 irradiance=1 yearly=SFO_37.8764_-122.3414_15_135
New PVSystem.pv_load_p13ulv44179 bus1=p13ulv44179.1.2 phases=1 kV=0.24 kVA=4.545454545454545 Pmpp=5.0 %Cutout=0.1 %Cutin=0.1 Model=1 irradiance=1 yearly=SFO_37.8764_-122.3414_35_270
New PVSystem.pv_load_p13ulv46376 bus1=p13ulv46376.1.2 phases=1 kV=0.24 kVA=4.545454545454545 Pmpp=5.0 %Cutout=0.1 %Cutin=0.1 Model=1 irradiance=1 yearly=SFO_37.8764_-122.3414_35_225
New PVSystem.pv_load_p13ulv39038 bus1=p13ulv1399.1.2 phases=1 kV=0.24 kVA=4.545454545454545 Pmpp=5.0 %Cutout=0.1 %Cutin=0.1 Model=1 irradiance=1 yearly=SFO_37.8764_-122.3414_35_180
New PVSystem.pv_load_p13ulv42569 bus1=p13ulv42569.1.2 phases=1 kV=0.24 kVA=4.545454545454545 Pmpp=5.0 %Cutout=0.1 %Cutin=0.1 Model=1 irradiance=1 yearly=SFO_37.8764_-122.3414_25_135
New PVSystem.pv_load_p13ulv40181 bus1=p13ulv40181.1.2 phases=1 kV=0.24 kVA=4.545454545454545 Pmpp=5.0 %Cutout=0.1 %Cutin=0.1 Model=1 irradiance=1 yearly=SFO_37.8764_-122.3414_25_270
New PVSystem.pv_load_p13ulv39216 bus1=p13ulv39216.1.2 phases=1 kV=0.24 kVA=4.545454545454545 Pmpp=5.0 %Cutout=0.1 %Cutin=0.1 Model=1 irradiance=1 yearly=SFO_37.8764_-122.3414_35_180
New PVSystem.pv_load_p13ulv44888 bus1=p13ulv44888.1.2 phases=1 kV=0.24 kVA=4.545454545454545 Pmpp=5.0 %Cutout=0.1 %Cutin=0.1 Model=1 irradiance=1 yearly=SFO_37.8764_-122.3414_15_135
New PVSystem.pv_load_p13ulv4213 bus1=p13ulv4213.1.2 phases=1 kV=0.24 kVA=4.545454545454545 Pmpp=5.0 %Cutout=0.1 %Cutin=0.1 Model=1 irradiance=1 yearly=SFO_37.8764_-122.3414_35_270
New PVSystem.pv_load_p13ulv45695 bus1=p13ulv45695.1.2 phases=1 kV=0.24 kVA=4.545454545454545 Pmpp=5.0 %Cutout=0.1 %Cutin=0.1 Model=1 irradiance=1 yearly=SFO_37.8764_-122.3414_35_225
New PVSystem.pv_load_p13ulv45750 bus1=p13ulv45750.1.2 phases=1 kV=0.24 kVA=4.545454545454545 Pmpp=5.0 %Cutout=0.1 %Cutin=0.1 Model=1 irradiance=1 yearly=SFO_37.8764_-122.3414_45_270
New PVSystem.pv_load_p13ulv39058 bus1=p13ulv39058.1.2 phases=1 kV=0.24 kVA=4.545454545454545 Pmpp=5.0 %Cutout=0.1 %Cutin=0.1 Model=1 irradiance=1 yearly=SFO_37.8764_-122.3414_35_180
New PVSystem.pv_load_p13ulv36917 bus1=p13ulv36917.1.2 phases=1 kV=0.24 kVA=4.545454545454545 Pmpp=5.0 %Cutout=0.1 %Cutin=0.1 Model=1 irradiance=1 yearly=SFO_37.8764_-122.3414_25_225
New PVSystem.pv_load_p13ulv39691 bus1=p13ulv39691.1.2 phases=1 kV=0.24 kVA=4.545454545454545 Pmpp=5.0 %Cutout=0.1 %Cutin=0.1 Model=1 irradiance=1 yearly=SFO_37.8764_-122.3414_25_90
New PVSystem.pv_load_p13ulv37402 bus1=p13ulv37402.1.2 phases=1 kV=0.24 kVA=4.545454545454545 Pmpp=5.0 %Cutout=0.1 %Cutin=0.1 Model=1 irradiance=1 yearly=SFO_37.8764_-122.3414_35_180
New PVSystem.pv_load_p13ulv2645 bus1=p13ulv2645.1.2.3 phases=3 kV=0.48 kVA=90.90909090909089 Pmpp=100.0 %Cutout=0.1 %Cutin=0.1 Model=1 irradiance=1 yearly=SFO_37.8764_-122.3414_25_135
New PVSystem.pv_load_p13ulv37002 bus1=p13ulv37002.1.2 phases=1 kV=0.24 kVA=4.545454545454545 Pmpp=5.0 %Cutout=0.1 %Cutin=0.1 Model=1 irradiance=1 yearly=SFO_37.8764_-122.3414_35_135
New PVSystem.pv_load_p13ulv33305 bus1=p13ulv33305.1.2 phases=1 kV=0.24 kVA=4.545454545454545 Pmpp=5.0 %Cutout=0.1 %Cutin=0.1 Model=1 irradiance=1 yearly=SFO_37.8764_-122.3414_25_180
New PVSystem.pv_load_p13ulv40257 bus1=p13ulv40257.1.2 phases=1 kV=0.24 kVA=4.545454545454545 Pmpp=5.0 %Cutout=0.1 %Cutin=0.1 Model=1 irradiance=1 yearly=SFO_37.8764_-122.3414_15_270
New PVSystem.pv_load_p13ulv44855 bus1=p13ulv44855.1.2 phases=1 kV=0.24 kVA=4.545454545454545 Pmpp=5.0 %Cutout=0.1 %Cutin=0.1 Model=1 irradiance=1 yearly=SFO_37.8764_-122.3414_25_90
New PVSystem.pv_load_p13ulv45749 bus1=p13ulv45749.1.2 phases=1 kV=0.24 kVA=4.545454545454545 Pmpp=5.0 %Cutout=0.1 %Cutin=0.1 Model=1 irradiance=1 yearly=SFO_37.8764_-122.3414_25_180
New PVSystem.pv_load_p13ulv38552 bus1=p13ulv38552.1.2 phases=1 kV=0.24 kVA=4.545454545454545 Pmpp=5.0 %Cutout=0.1 %Cutin=0.1 Model=1 irradiance=1 yearly=SFO_37.8764_-122.3414_25_225
New PVSystem.pv_load_p13ulv41382 bus1=p13ulv41382.1.2 phases=1 kV=0.24 kVA=4.545454545454545 Pmpp=5.0 %Cutout=0.1 %Cutin=0.1 Model=1 irradiance=1 yearly=SFO_37.8764_-122.3414_35_180
New PVSystem.pv_load_p13ulv46173 bus1=p13ulv46173.1.2 phases=1 kV=0.24 kVA=4.545454545454545 Pmpp=5.0 %Cutout=0.1 %Cutin=0.1 Model=1 irradiance=1 yearly=SFO_37.8764_-122.3414_25_225
New PVSystem.pv_load_p13ulv36800 bus1=p13ulv36800.1.2 phases=1 kV=0.24 kVA=4.545454545454545 Pmpp=5.0 %Cutout=0.1 %Cutin=0.1 Model=1 irradiance=1 yearly=SFO_37.8764_-122.3414_25_180
New PVSystem.pv_load_p13ulv42757 bus1=p13ulv42757.1.2 phases=1 kV=0.24 kVA=4.545454545454545 Pmpp=5.0 %Cutout=0.1 %Cutin=0.1 Model=1 irradiance=1 yearly=SFO_37.8764_-122.3414_15_180
New PVSystem.pv_load_p13ulv36891 bus1=p13ulv36891.1.2 phases=1 kV=0.24 kVA=4.545454545454545 Pmpp=5.0 %Cutout=0.1 %Cutin=0.1 Model=1 irradiance=1 yearly=SFO_37.8764_-122.3414_15_90
New PVSystem.pv_load_p13ulv44915 bus1=p13ulv44915.1.2 phases=1 kV=0.24 kVA=4.545454545454545 Pmpp=5.0 %Cutout=0.1 %Cutin=0.1 Model=1 irradiance=1 yearly=SFO_37.8764_-122.3414_15_180
New PVSystem.pv_load_p13ulv33320 bus1=p13ulv33320.1.2 phases=1 kV=0.24 kVA=4.545454545454545 Pmpp=5.0 %Cutout=0.1 %Cutin=0.1 Model=1 irradiance=1 yearly=SFO_37.8764_-122.3414_45_135
New PVSystem.pv_load_p13ulv45716 bus1=p13ulv45716.1.2 phases=1 kV=0.24 kVA=4.545454545454545 Pmpp=5.0 %Cutout=0.1 %Cutin=0.1 Model=1 irradiance=1 yearly=SFO_37.8764_-122.3414_35_180
New PVSystem.pv_load_p13ulv44250 bus1=p13ulv44250.1.2 phases=1 kV=0.24 kVA=4.545454545454545 Pmpp=5.0 %Cutout=0.1 %Cutin=0.1 Model=1 irradiance=1 yearly=SFO_37.8764_-122.3414_15_90
New PVSystem.pv_load_p13ulv41384 bus1=p13ulv41384.1.2 phases=1 kV=0.24 kVA=2.727272727272727 Pmpp=3.0 %Cutout=0.1 %Cutin=0.1 Model=1 irradiance=1 yearly=SFO_37.8764_-122.3414_25_225
New PVSystem.pv_load_p13ulv38003 bus1=p13ulv38003.1.2 phases=1 kV=0.24 kVA=4.545454545454545 Pmpp=5.0 %Cutout=0.1 %Cutin=0.1 Model=1 irradiance=1 yearly=SFO_37.8764_-122.3414_25_225
New PVSystem.pv_load_p13ulv40256 bus1=p13ulv40256.1.2 phases=1 kV=0.24 kVA=4.545454545454545 Pmpp=5.0 %Cutout=0.1 %Cutin=0.1 Model=1 irradiance=1 yearly=SFO_37.8764_-122.3414_35_180
New PVSystem.pv_load_p13ulv40219 bus1=p13ulv40219.1.2 phases=1 kV=0.24 kVA=4.545454545454545 Pmpp=5.0 %Cutout=0.1 %Cutin=0.1 Model=1 irradiance=1 yearly=SFO_37.8764_-122.3414_25_270
New PVSystem.pv_load_p13ulv44727 bus1=p13ulv44727.1.2 phases=1 kV=0.24 kVA=4.545454545454545 Pmpp=5.0 %Cutout=0.1 %Cutin=0.1 Model=1 irradiance=1 yearly=SFO_37.8764_-122.3414_15_180
New PVSystem.pv_load_p13ulv3701 bus1=p13ulv3701.1.2 phases=1 kV=0.24 kVA=4.545454545454545 Pmpp=5.0 %Cutout=0.1 %Cutin=0.1 Model=1 irradiance=1 yearly=SFO_37.8764_-122.3414_15_180
New PVSystem.pv_load_p13ulv44746 bus1=p13ulv44746.1.2 phases=1 kV=0.24 kVA=4.545454545454545 Pmpp=5.0 %Cutout=0.1 %Cutin=0.1 Model=1 irradiance=1 yearly=SFO_37.8764_-122.3414_15_135
New PVSystem.pv_load_p13ulv42618 bus1=p13ulv42618.1.2 phases=1 kV=0.24 kVA=4.545454545454545 Pmpp=5.0 %Cutout=0.1 %Cutin=0.1 Model=1 irradiance=1 yearly=SFO_37.8764_-122.3414_25_225
New PVSystem.pv_load_p13ulv38763 bus1=p13ulv38763.1.2 phases=1 kV=0.24 kVA=4.545454545454545 Pmpp=5.0 %Cutout=0.1 %Cutin=0.1 Model=1 irradiance=1 yearly=SFO_37.8764_-122.3414_45_135
New PVSystem.pv_load_p13ulv38033 bus1=p13ulv38033.1.2 phases=1 kV=0.24 kVA=4.545454545454545 Pmpp=5.0 %Cutout=0.1 %Cutin=0.1 Model=1 irradiance=1 yearly=SFO_37.8764_-122.3414_15_135
New PVSystem.pv_load_p13ulv44230 bus1=p13ulv44230.1.2 phases=1 kV=0.24 kVA=4.545454545454545 Pmpp=5.0 %Cutout=0.1 %Cutin=0.1 Model=1 irradiance=1 yearly=SFO_37.8764_-122.3414_25_180
New PVSystem.pv_load_p13ulv2648 bus1=p13ulv2648.1.2.3 phases=3 kV=0.48 kVA=7.2727272727272725 Pmpp=8.0 %Cutout=0.1 %Cutin=0.1 Model=1 irradiance=1 yearly=SFO_37.8764_-122.3414_35_180
New PVSystem.pv_load_p13ulv45542 bus1=p13ulv45542.1.2 phases=1 kV=0.24 kVA=4.545454545454545 Pmpp=5.0 %Cutout=0.1 %Cutin=0.1 Model=1 irradiance=1 yearly=SFO_37.8764_-122.3414_25_270
New PVSystem.pv_load_p13ulv45514 bus1=p13ulv45514.1.2 phases=1 kV=0.24 kVA=4.545454545454545 Pmpp=5.0 %Cutout=0.1 %Cutin=0.1 Model=1 irradiance=1 yearly=SFO_37.8764_-122.3414_25_180
New PVSystem.pv_load_p13ulv38158 bus1=p13ulv38158.1.2 phases=1 kV=0.24 kVA=4.545454545454545 Pmpp=5.0 %Cutout=0.1 %Cutin=0.1 Model=1 irradiance=1 yearly=SFO_37.8764_-122.3414_35_270
New PVSystem.pv_load_p13ulv40340 bus1=p13ulv40340.1.2 phases=1 kV=0.24 kVA=4.545454545454545 Pmpp=5.0 %Cutout=0.1 %Cutin=0.1 Model=1 irradiance=1 yearly=SFO_37.8764_-122.3414_25_225
New PVSystem.pv_load_p13ulv36854 bus1=p13ulv36854.1.2 phases=1 kV=0.24 kVA=4.545454545454545 Pmpp=5.0 %Cutout=0.1 %Cutin=0.1 Model=1 irradiance=1 yearly=SFO_37.8764_-122.3414_25_90
New PVSystem.pv_load_p13ulv41466 bus1=p13ulv41466.1.2 phases=1 kV=0.24 kVA=4.545454545454545 Pmpp=5.0 %Cutout=0.1 %Cutin=0.1 Model=1 irradiance=1 yearly=SFO_37.8764_-122.3414_35_90
New PVSystem.pv_load_p13ulv46293 bus1=p13ulv46293.1.2 phases=1 kV=0.24 kVA=4.545454545454545 Pmpp=5.0 %Cutout=0.1 %Cutin=0.1 Model=1 irradiance=1 yearly=SFO_37.8764_-122.3414_15_90
New PVSystem.pv_load_p13ulv44247 bus1=p13ulv44247.1.2 phases=1 kV=0.24 kVA=4.545454545454545 Pmpp=5.0 %Cutout=0.1 %Cutin=0.1 Model=1 irradiance=1 yearly=SFO_37.8764_-122.3414_15_135
New PVSystem.pv_load_p13ulv43271 bus1=p13ulv43271.1.2 phases=1 kV=0.24 kVA=4.545454545454545 Pmpp=5.0 %Cutout=0.1 %Cutin=0.1 Model=1 irradiance=1 yearly=SFO_37.8764_-122.3414_15_225
New PVSystem.pv_load_p13ulv39279 bus1=p13ulv39279.1.2 phases=1 kV=0.24 kVA=4.545454545454545 Pmpp=5.0 %Cutout=0.1 %Cutin=0.1 Model=1 irradiance=1 yearly=SFO_37.8764_-122.3414_25_225
New PVSystem.pv_load_p13ulv38589 bus1=p13ulv38589.1.2 phases=1 kV=0.24 kVA=4.545454545454545 Pmpp=5.0 %Cutout=0.1 %Cutin=0.1 Model=1 irradiance=1 yearly=SFO_37.8764_-122.3414_25_225
New PVSystem.pv_load_p13ulv37905 bus1=p13ulv37905.1.2 phases=1 kV=0.24 kVA=4.545454545454545 Pmpp=5.0 %Cutout=0.1 %Cutin=0.1 Model=1 irradiance=1 yearly=SFO_37.8764_-122.3414_45_225
New PVSystem.pv_load_p13ulv37934 bus1=p13ulv37934.1.2 phases=1 kV=0.24 kVA=4.545454545454545 Pmpp=5.0 %Cutout=0.1 %Cutin=0.1 Model=1 irradiance=1 yearly=SFO_37.8764_-122.3414_35_135
New PVSystem.pv_load_p13ulv42796 bus1=p13ulv42796.1.2 phases=1 kV=0.24 kVA=4.545454545454545 Pmpp=5.0 %Cutout=0.1 %Cutin=0.1 Model=1 irradiance=1 yearly=SFO_37.8764_-122.3414_25_135
New PVSystem.pv_load_p13ulv38801 bus1=p13ulv38801.1.2 phases=1 kV=0.24 kVA=4.545454545454545 Pmpp=5.0 %Cutout=0.1 %Cutin=0.1 Model=1 irradiance=1 yearly=SFO_37.8764_-122.3414_35_90
New PVSystem.pv_load_p13ulv43359 bus1=p13ulv43359.1.2 phases=1 kV=0.24 kVA=4.545454545454545 Pmpp=5.0 %Cutout=0.1 %Cutin=0.1 Model=1 irradiance=1 yearly=SFO_37.8764_-122.3414_45_180
New PVSystem.pv_load_p13ulv45831 bus1=p13ulv45831.1.2 phases=1 kV=0.24 kVA=4.545454545454545 Pmpp=5.0 %Cutout=0.1 %Cutin=0.1 Model=1 irradiance=1 yearly=SFO_37.8764_-122.3414_25_180
New PVSystem.pv_load_p13ulv39054 bus1=p13ulv39054.1.2 phases=1 kV=0.24 kVA=4.545454545454545 Pmpp=5.0 %Cutout=0.1 %Cutin=0.1 Model=1 irradiance=1 yearly=SFO_37.8764_-122.3414_15_180
New PVSystem.pv_load_p13ulv44229 bus1=p13ulv44229.1.2 phases=1 kV=0.24 kVA=4.545454545454545 Pmpp=5.0 %Cutout=0.1 %Cutin=0.1 Model=1 irradiance=1 yearly=SFO_37.8764_-122.3414_15_225
New PVSystem.pv_load_p13ulv45640 bus1=p13ulv45640.1.2 phases=1 kV=0.24 kVA=4.545454545454545 Pmpp=5.0 %Cutout=0.1 %Cutin=0.1 Model=1 irradiance=1 yearly=SFO_37.8764_-122.3414_15_180
New PVSystem.pv_load_p13ulv45751 bus1=p13ulv45751.1.2 phases=1 kV=0.24 kVA=2.727272727272727 Pmpp=3.0 %Cutout=0.1 %Cutin=0.1 Model=1 irradiance=1 yearly=SFO_37.8764_-122.3414_15_225
New PVSystem.pv_load_p13ulv45715 bus1=p13ulv45715.1.2 phases=1 kV=0.24 kVA=4.545454545454545 Pmpp=5.0 %Cutout=0.1 %Cutin=0.1 Model=1 irradiance=1 yearly=SFO_37.8764_-122.3414_15_225
New PVSystem.pv_load_p13ulv41422 bus1=p13ulv41422.1.2 phases=1 kV=0.24 kVA=4.545454545454545 Pmpp=5.0 %Cutout=0.1 %Cutin=0.1 Model=1 irradiance=1 yearly=SFO_37.8764_-122.3414_35_225
New PVSystem.pv_load_p13ulv45696 bus1=p13ulv45696.1.2 phases=1 kV=0.24 kVA=7.2727272727272725 Pmpp=8.0 %Cutout=0.1 %Cutin=0.1 Model=1 irradiance=1 yearly=SFO_37.8764_-122.3414_25_135
New PVSystem.pv_load_p13ulv4177 bus1=p13ulv4177.1.2 phases=1 kV=0.24 kVA=4.545454545454545 Pmpp=5.0 %Cutout=0.1 %Cutin=0.1 Model=1 irradiance=1 yearly=SFO_37.8764_-122.3414_15_270
New PVSystem.pv_load_p13ulv37965 bus1=p13ulv37965.1.2 phases=1 kV=0.24 kVA=4.545454545454545 Pmpp=5.0 %Cutout=0.1 %Cutin=0.1 Model=1 irradiance=1 yearly=SFO_37.8764_-122.3414_25_180
New PVSystem.pv_load_p13ulv45526 bus1=p13ulv45526.1.2 phases=1 kV=0.24 kVA=4.545454545454545 Pmpp=5.0 %Cutout=0.1 %Cutin=0.1 Model=1 irradiance=1 yearly=SFO_37.8764_-122.3414_15_180
New PVSystem.pv_load_p13ulv46195 bus1=p13ulv46195.1.2 phases=1 kV=0.24 kVA=4.545454545454545 Pmpp=5.0 %Cutout=0.1 %Cutin=0.1 Model=1 irradiance=1 yearly=SFO_37.8764_-122.3414_15_270
New PVSystem.pv_load_p13ulv40246 bus1=p13ulv40246.1.2 phases=1 kV=0.24 kVA=4.545454545454545 Pmpp=5.0 %Cutout=0.1 %Cutin=0.1 Model=1 irradiance=1 yearly=SFO_37.8764_-122.3414_35_225
New PVSystem.pv_load_p13ulv42602 bus1=p13ulv42602.1.2 phases=1 kV=0.24 kVA=4.545454545454545 Pmpp=5.0 %Cutout=0.1 %Cutin=0.1 Model=1 irradiance=1 yearly=SFO_37.8764_-122.3414_15_270
New PVSystem.pv_load_p13ulv38715 bus1=p13ulv38715.1.2 phases=1 kV=0.24 kVA=7.2727272727272725 Pmpp=8.0 %Cutout=0.1 %Cutin=0.1 Model=1 irradiance=1 yearly=SFO_37.8764_-122.3414_25_135
New PVSystem.pv_load_p13ulv45770 bus1=p13ulv45770.1.2 phases=1 kV=0.24 kVA=4.545454545454545 Pmpp=5.0 %Cutout=0.1 %Cutin=0.1 Model=1 irradiance=1 yearly=SFO_37.8764_-122.3414_25_90
New PVSystem.pv_load_p13ulv40252 bus1=p13ulv40252.1.2 phases=1 kV=0.24 kVA=4.545454545454545 Pmpp=5.0 %Cutout=0.1 %Cutin=0.1 Model=1 irradiance=1 yearly=SFO_37.8764_-122.3414_35_225
New PVSystem.pv_load_p13ulv39101 bus1=p13ulv39101.1.2 phases=1 kV=0.24 kVA=4.545454545454545 Pmpp=5.0 %Cutout=0.1 %Cutin=0.1 Model=1 irradiance=1 yearly=SFO_37.8764_-122.3414_45_225
New PVSystem.pv_load_p13ulv37910 bus1=p13ulv37910.1.2 phases=1 kV=0.24 kVA=4.545454545454545 Pmpp=5.0 %Cutout=0.1 %Cutin=0.1 Model=1 irradiance=1 yearly=SFO_37.8764_-122.3414_45_270
New PVSystem.pv_load_p13ulv38099 bus1=p13ulv38099.1.2 phases=1 kV=0.24 kVA=4.545454545454545 Pmpp=5.0 %Cutout=0.1 %Cutin=0.1 Model=1 irradiance=1 yearly=SFO_37.8764_-122.3414_35_225
New PVSystem.pv_load_p13ulv2650 bus1=p13ulv2650.1.2 phases=1 kV=0.24 kVA=90.90909090909089 Pmpp=100.0 %Cutout=0.1 %Cutin=0.1 Model=1 irradiance=1 yearly=SFO_37.8764_-122.3414_15_180
New PVSystem.pv_load_p13ulv42593 bus1=p13ulv42593.1.2 phases=1 kV=0.24 kVA=4.545454545454545 Pmpp=5.0 %Cutout=0.1 %Cutin=0.1 Model=1 irradiance=1 yearly=SFO_37.8764_-122.3414_15_225
New PVSystem.pv_load_p13ulv42719 bus1=p13ulv42719.1.2 phases=1 kV=0.24 kVA=4.545454545454545 Pmpp=5.0 %Cutout=0.1 %Cutin=0.1 Model=1 irradiance=1 yearly=SFO_37.8764_-122.3414_15_180
New PVSystem.pv_load_p13ulv36930 bus1=p13ulv36930.1.2 phases=1 kV=0.24 kVA=4.545454545454545 Pmpp=5.0 %Cutout=0.1 %Cutin=0.1 Model=1 irradiance=1 yearly=SFO_37.8764_-122.3414_15_90
New PVSystem.pv_load_p13ulv38780 bus1=p13ulv38780.1.2 phases=1 kV=0.24 kVA=7.2727272727272725 Pmpp=8.0 %Cutout=0.1 %Cutin=0.1 Model=1 irradiance=1 yearly=SFO_37.8764_-122.3414_15_180
New PVSystem.pv_load_p13ulv36935 bus1=p13ulv36935.1.2 phases=1 kV=0.24 kVA=4.545454545454545 Pmpp=5.0 %Cutout=0.1 %Cutin=0.1 Model=1 irradiance=1 yearly=SFO_37.8764_-122.3414_35_180
New PVSystem.pv_load_p13ulv38409 bus1=p13ulv38409.1.2 phases=1 kV=0.24 kVA=7.2727272727272725 Pmpp=8.0 %Cutout=0.1 %Cutin=0.1 Model=1 irradiance=1 yearly=SFO_37.8764_-122.3414_25_225
New PVSystem.pv_load_p13ulv41403 bus1=p13ulv41403.1.2 phases=1 kV=0.24 kVA=4.545454545454545 Pmpp=5.0 %Cutout=0.1 %Cutin=0.1 Model=1 irradiance=1 yearly=SFO_37.8764_-122.3414_15_90
New PVSystem.pv_load_p13ulv44850 bus1=p13ulv44850.1.2 phases=1 kV=0.24 kVA=4.545454545454545 Pmpp=5.0 %Cutout=0.1 %Cutin=0.1 Model=1 irradiance=1 yearly=SFO_37.8764_-122.3414_15_225
New PVSystem.pv_load_p13ulv40299 bus1=p13ulv40299.1.2 phases=1 kV=0.24 kVA=4.545454545454545 Pmpp=5.0 %Cutout=0.1 %Cutin=0.1 Model=1 irradiance=1 yearly=SFO_37.8764_-122.3414_15_270
New PVSystem.pv_load_p13ulv40341 bus1=p13ulv40341.1.2 phases=1 kV=0.24 kVA=4.545454545454545 Pmpp=5.0 %Cutout=0.1 %Cutin=0.1 Model=1 irradiance=1 yearly=SFO_37.8764_-122.3414_15_135
New PVSystem.pv_load_p13ulv3753 bus1=p13ulv3753.1.2 phases=1 kV=0.24 kVA=4.545454545454545 Pmpp=5.0 %Cutout=0.1 %Cutin=0.1 Model=1 irradiance=1 yearly=SFO_37.8764_-122.3414_15_270
New PVSystem.pv_load_p13ulv40220 bus1=p13ulv40220.1.2 phases=1 kV=0.24 kVA=4.545454545454545 Pmpp=5.0 %Cutout=0.1 %Cutin=0.1 Model=1 irradiance=1 yearly=SFO_37.8764_-122.3414_35_180
New PVSystem.pv_load_p13ulv40418 bus1=p13ulv40418.1.2 phases=1 kV=0.24 kVA=4.545454545454545 Pmpp=5.0 %Cutout=0.1 %Cutin=0.1 Model=1 irradiance=1 yearly=SFO_37.8764_-122.3414_15_180
New PVSystem.pv_load_p13ulv2632 bus1=p13ulv2632.1.2 phases=1 kV=0.24 kVA=4.545454545454545 Pmpp=5.0 %Cutout=0.1 %Cutin=0.1 Model=1 irradiance=1 yearly=SFO_37.8764_-122.3414_15_180
New PVSystem.pv_load_p13ulv36827 bus1=p13ulv36827.1.2 phases=1 kV=0.24 kVA=4.545454545454545 Pmpp=5.0 %Cutout=0.1 %Cutin=0.1 Model=1 irradiance=1 yearly=SFO_37.8764_-122.3414_25_135
New PVSystem.pv_load_p13ulv44129 bus1=p13ulv44129.1.2 phases=1 kV=0.24 kVA=4.545454545454545 Pmpp=5.0 %Cutout=0.1 %Cutin=0.1 Model=1 irradiance=1 yearly=SFO_37.8764_-122.3414_35_270
New PVSystem.pv_load_p13ulv37541 bus1=p13ulv37541.1.2 phases=1 kV=0.24 kVA=4.545454545454545 Pmpp=5.0 %Cutout=0.1 %Cutin=0.1 Model=1 irradiance=1 yearly=SFO_37.8764_-122.3414_35_225
New PVSystem.pv_load_p13ulv39031 bus1=p13ulv39031.1.2 phases=1 kV=0.24 kVA=4.545454545454545 Pmpp=5.0 %Cutout=0.1 %Cutin=0.1 Model=1 irradiance=1 yearly=SFO_37.8764_-122.3414_35_135
New PVSystem.pv_load_p13ulv37962 bus1=p13ulv37962.1.2 phases=1 kV=0.24 kVA=4.545454545454545 Pmpp=5.0 %Cutout=0.1 %Cutin=0.1 Model=1 irradiance=1 yearly=SFO_37.8764_-122.3414_25_135
New PVSystem.pv_load_p13ulv37462 bus1=p13ulv37462.1.2 phases=1 kV=0.24 kVA=4.545454545454545 Pmpp=5.0 %Cutout=0.1 %Cutin=0.1 Model=1 irradiance=1 yearly=SFO_37.8764_-122.3414_15_180
New PVSystem.pv_load_p13ulv40239 bus1=p13ulv40239.1.2 phases=1 kV=0.24 kVA=4.545454545454545 Pmpp=5.0 %Cutout=0.1 %Cutin=0.1 Model=1 irradiance=1 yearly=SFO_37.8764_-122.3414_15_135
New PVSystem.pv_load_p13ulv36944 bus1=p13ulv36944.1.2 phases=1 kV=0.24 kVA=4.545454545454545 Pmpp=5.0 %Cutout=0.1 %Cutin=0.1 Model=1 irradiance=1 yearly=SFO_37.8764_-122.3414_25_270
New PVSystem.pv_load_p13ulv39053 bus1=p13ulv39053.1.2 phases=1 kV=0.24 kVA=4.545454545454545 Pmpp=5.0 %Cutout=0.1 %Cutin=0.1 Model=1 irradiance=1 yearly=SFO_37.8764_-122.3414_25_135
New PVSystem.pv_load_p13ulv38051 bus1=p13ulv38051.1.2 phases=1 kV=0.24 kVA=4.545454545454545 Pmpp=5.0 %Cutout=0.1 %Cutin=0.1 Model=1 irradiance=1 yearly=SFO_37.8764_-122.3414_25_180
New PVSystem.pv_load_p13ulv3740 bus1=p13ulv3740.1.2 phases=1 kV=0.24 kVA=4.545454545454545 Pmpp=5.0 %Cutout=0.1 %Cutin=0.1 Model=1 irradiance=1 yearly=SFO_37.8764_-122.3414_25_180
New PVSystem.pv_load_p13ulv37027 bus1=p13ulv37027.1.2 phases=1 kV=0.24 kVA=4.545454545454545 Pmpp=5.0 %Cutout=0.1 %Cutin=0.1 Model=1 irradiance=1 yearly=SFO_37.8764_-122.3414_15_180
New PVSystem.pv_load_p13ulv37925 bus1=p13ulv37925.1.2 phases=1 kV=0.24 kVA=4.545454545454545 Pmpp=5.0 %Cutout=0.1 %Cutin=0.1 Model=1 irradiance=1 yearly=SFO_37.8764_-122.3414_35_270
New PVSystem.pv_load_p13ulv46126 bus1=p13ulv46126.1.2 phases=1 kV=0.24 kVA=4.545454545454545 Pmpp=5.0 %Cutout=0.1 %Cutin=0.1 Model=1 irradiance=1 yearly=SFO_37.8764_-122.3414_35_135
New PVSystem.pv_load_p13ulv37012 bus1=p13ulv37012.1.2 phases=1 kV=0.24 kVA=4.545454545454545 Pmpp=5.0 %Cutout=0.1 %Cutin=0.1 Model=1 irradiance=1 yearly=SFO_37.8764_-122.3414_35_270
New PVSystem.pv_load_p13ulv39321 bus1=p13ulv39309.1.2 phases=1 kV=0.24 kVA=4.545454545454545 Pmpp=5.0 %Cutout=0.1 %Cutin=0.1 Model=1 irradiance=1 yearly=SFO_37.8764_-122.3414_35_270
New PVSystem.pv_load_p13ulv44165 bus1=p13ulv44165.1.2 phases=1 kV=0.24 kVA=4.545454545454545 Pmpp=5.0 %Cutout=0.1 %Cutin=0.1 Model=1 irradiance=1 yearly=SFO_37.8764_-122.3414_15_180
New PVSystem.pv_load_p13ulv44122 bus1=p13ulv44122.1.2 phases=1 kV=0.24 kVA=4.545454545454545 Pmpp=5.0 %Cutout=0.1 %Cutin=0.1 Model=1 irradiance=1 yearly=SFO_37.8764_-122.3414_35_180
...

